# generated using pymatgen
data_MoN
_symmetry_space_group_name_H-M   'P 1'
_cell_length_a   2.84946289
_cell_length_b   2.84946289
_cell_length_c   11.39820007
_cell_angle_alpha   90.00000000
_cell_angle_beta   90.00000000
_cell_angle_gamma   120.00000000
_symmetry_Int_Tables_number   1
_chemical_formula_structural   MoN
_chemical_formula_sum   'Mo4 N4'
_cell_volume   80.14804199
_cell_formula_units_Z   4
loop_
 _symmetry_equiv_pos_site_id
 _symmetry_equiv_pos_as_xyz
  1  'x, y, z'
loop_
 _atom_type_symbol
 _atom_type_oxidation_number
  Mo3+  3.0
  N3-  -3.0
loop_
 _atom_site_type_symbol
 _atom_site_label
 _atom_site_symmetry_multiplicity
 _atom_site_fract_x
 _atom_site_fract_y
 _atom_site_fract_z
 _atom_site_occupancy
  Mo3+  Mo0  1  0.00000000  0.00000000  0.25000000  1
  Mo3+  Mo1  1  0.00000000  0.00000000  0.75000000  1
  Mo3+  Mo2  1  0.00000000  0.00000000  0.50000000  1
  Mo3+  Mo3  1  0.00000000  0.00000000  0.00000000  1
  N3-  N4  1  0.33333333  0.66666667  0.36985306  1
  N3-  N5  1  0.66666667  0.33333333  0.63014694  1
  N3-  N6  1  0.66666667  0.33333333  0.86985306  1
  N3-  N7  1  0.33333333  0.66666667  0.13014694  1
